validation_cases/use_cases/uc1/check_live_pglib_opf_case5_pjm.powermodels.json
{
    "ac": true,
    "baseMVA": 100,
    "branch": {
        "1": {
            "angmax": 1.0471975511965976,
            "angmin": -1.0471975511965976,
            "b_fr": 0.356,
            "b_to": 0.356,
            "br_r": 2.81e-05,
            "br_status": 1,
            "br_x": 0.000281,
            "f_bus": 1,
            "g_fr": 0.0,
            "g_to": 0.0,
            "index": 1,
            "rate_a": 400.00000000000006,
            "rate_b": 0.0,
            "rate_c": 0.0,
            "shift": 0.0,
            "t_bus": 2,
            "tap": 1.0,
            "transformer": false
        },
        "2": {
            "angmax": 1.0471975511965976,
            "angmin": -1.0471975511965976,
            "b_fr": 0.32900000000000007,
            "b_to": 0.32900000000000007,
            "br_r": 3.04e-05,
            "br_status": 1,
            "br_x": 0.000304,
            "f_bus": 1,
            "g_fr": 0.0,
            "g_to": 0.0,
            "index": 2,
            "rate_a": 426.0,
            "rate_b": 0.0,
            "rate_c": 0.0,
            "shift": 0.0,
            "t_bus": 4,
            "tap": 1.0,
            "transformer": false
        },
        "3": {
            "angmax": 1.0471975511965976,
            "angmin": -1.0471975511965976,
            "b_fr": 1.5630000000000006,
            "b_to": 1.5630000000000006,
            "br_r": 6.4000000000000006e-06,
            "br_status": 1,
            "br_x": 6.4e-05,
            "f_bus": 1,
            "g_fr": 0.0,
            "g_to": 0.0,
            "index": 3,
            "rate_a": 426.0,
            "rate_b": 0.0,
            "rate_c": 0.0,
            "shift": 0.0,
            "t_bus": 5,
            "tap": 1.0,
            "transformer": false
        },
        "4": {
            "angmax": 1.0471975511965976,
            "angmin": -1.0471975511965976,
            "b_fr": 0.9259999999999999,
            "b_to": 0.9259999999999999,
            "br_r": 1.08e-05,
            "br_status": 1,
            "br_x": 0.00010800000000000001,
            "f_bus": 2,
            "g_fr": 0.0,
            "g_to": 0.0,
            "index": 4,
            "rate_a": 426.0,
            "rate_b": 0.0,
            "rate_c": 0.0,
            "shift": 0.0,
            "t_bus": 3,
            "tap": 1.0,
            "transformer": false
        },
        "5": {
            "angmax": 1.0471975511965976,
            "angmin": -1.0471975511965976,
            "b_fr": 0.3370000000000001,
            "b_to": 0.3370000000000001,
            "br_r": 2.97e-05,
            "br_status": 1,
            "br_x": 0.000297,
            "f_bus": 3,
            "g_fr": 0.0,
            "g_to": 0.0,
            "index": 5,
            "rate_a": 426.0,
            "rate_b": 0.0,
            "rate_c": 0.0,
            "shift": 0.0,
            "t_bus": 4,
            "tap": 1.0,
            "transformer": false
        },
        "6": {
            "angmax": 1.0471975511965976,
            "angmin": -1.0471975511965976,
            "b_fr": 0.3370000000000001,
            "b_to": 0.3370000000000001,
            "br_r": 2.97e-05,
            "br_status": 1,
            "br_x": 0.000297,
            "f_bus": 4,
            "g_fr": 0.0,
            "g_to": 0.0,
            "index": 6,
            "rate_a": 240.0,
            "rate_b": 0.0,
            "rate_c": 0.0,
            "shift": 0.0,
            "t_bus": 5,
            "tap": 1.0,
            "transformer": false
        }
    },
    "bus": {
        "1": {
            "base_kv": 230.0,
            "bus_i": 1,
            "bus_type": 2,
            "index": 1,
            "va": 0.0,
            "vm": 1.0,
            "vmax": 1.1,
            "vmin": 0.9,
            "zone": 1
        },
        "2": {
            "base_kv": 230.0,
            "bus_i": 2,
            "bus_type": 1,
            "index": 2,
            "va": 0.0,
            "vm": 1.0,
            "vmax": 1.1,
            "vmin": 0.9,
            "zone": 1
        },
        "3": {
            "base_kv": 230.0,
            "bus_i": 3,
            "bus_type": 2,
            "index": 3,
            "va": 0.0,
            "vm": 1.0,
            "vmax": 1.1,
            "vmin": 0.9,
            "zone": 1
        },
        "4": {
            "base_kv": 230.0,
            "bus_i": 4,
            "bus_type": 3,
            "index": 4,
            "va": 0.0,
            "vm": 1.0,
            "vmax": 1.00000001,
            "vmin": 0.99999999,
            "zone": 1
        },
        "5": {
            "base_kv": 230.0,
            "bus_i": 5,
            "bus_type": 2,
            "index": 5,
            "va": 0.0,
            "vm": 1.0,
            "vmax": 1.1,
            "vmin": 0.9,
            "zone": 1
        }
    },
    "correct_pm_network_data": true,
    "dcline": {},
    "gen": {
        "1": {
            "cost": [
                0,
                40.0,
                0.0
            ],
            "gen_bus": 4,
            "gen_status": 1,
            "index": 1,
            "model": 2,
            "ncost": 3,
            "pg": 0.0,
            "pmax": 200.00000001,
            "pmin": -1e-08,
            "qg": 0.0,
            "qmax": 150.00000001,
            "qmin": -150.00000001,
            "shutdown": 0.0,
            "startup": 0.0,
            "vg": 1.0
        },
        "2": {
            "cost": [
                0,
                14.0,
                0.0
            ],
            "gen_bus": 1,
            "gen_status": 1,
            "index": 2,
            "model": 2,
            "ncost": 3,
            "pg": 20.0,
            "pmax": 40.00000001,
            "pmin": -1e-08,
            "qg": 0.0,
            "qmax": 30.00000001,
            "qmin": -30.00000001,
            "shutdown": 0.0,
            "startup": 0.0,
            "vg": 1.0
        },
        "3": {
            "cost": [
                0,
                30.0,
                0.0
            ],
            "gen_bus": 3,
            "gen_status": 1,
            "index": 3,
            "model": 2,
            "ncost": 3,
            "pg": 260.0,
            "pmax": 520.00000001,
            "pmin": -1e-08,
            "qg": 0.0,
            "qmax": 390.00000001,
            "qmin": -390.00000001,
            "shutdown": 0.0,
            "startup": 0.0,
            "vg": 1.0
        },
        "4": {
            "cost": [
                0,
                10.0,
                0.0
            ],
            "gen_bus": 5,
            "gen_status": 1,
            "index": 4,
            "model": 2,
            "ncost": 3,
            "pg": 300.0,
            "pmax": 600.00000001,
            "pmin": -1e-08,
            "qg": 0.0,
            "qmax": 450.00000001,
            "qmin": -450.00000001,
            "shutdown": 0.0,
            "startup": 0.0,
            "vg": 1.0
        },
        "5": {
            "cost": [
                0,
                15.0,
                0.0
            ],
            "gen_bus": 1,
            "gen_status": 1,
            "index": 5,
            "model": 2,
            "ncost": 3,
            "pg": 85.0,
            "pmax": 170.00000001,
            "pmin": -1e-08,
            "qg": 0.0,
            "qmax": 127.50000001,
            "qmin": -127.50000001,
            "shutdown": 0.0,
            "startup": 0.0,
            "vg": 1.0
        }
    },
    "load": {
        "1": {
            "index": 1,
            "load_bus": 2,
            "pd": 300.0,
            "qd": 98.61,
            "status": 1
        },
        "2": {
            "index": 2,
            "load_bus": 3,
            "pd": 300.0,
            "qd": 98.61,
            "status": 1
        },
        "3": {
            "index": 3,
            "load_bus": 4,
            "pd": 400.0,
            "qd": 131.47,
            "status": 1
        }
    },
    "name": "",
    "ne_branch": {},
    "per_unit": true,
    "pm_log_level": 0,
    "pm_mip_solver": "cbc",
    "pm_mip_time_limit": Infinity,
    "pm_model": "ACPPowerModel",
    "pm_nl_solver": "ipopt",
    "pm_nl_time_limit": Infinity,
    "pm_solver": "ipopt",
    "pm_time_limit": Infinity,
    "pm_tol": 1e-08,
    "shunt": {},
    "silence": true,
    "source_version": "2.0.0",
    "sourcetype": "matpower",
    "storage": {},
    "switch": {},
    "user_defined_params": {
        "gen_and_controllable_sgen": {
            "2": 2,
            "3": 3,
            "4": 4,
            "5": 5
        }
    }
}